/*--------------------------------*- C++ -*----------------------------------*\
| =========                 |                                                 |
| \\      /  F ield         | OpenFOAM: The Open Source CFD Toolbox           |
|  \\    /   O peration     | Version:  v2012                                 |
|   \\  /    A nd           | Website:  www.openfoam.com                      |
|    \\/     M anipulation  |                                                 |
\*---------------------------------------------------------------------------*/
FoamFile
{
    version     2.0;
    format      ascii;
    class       pointVectorField;
    object      pointDisplacement;
}
// * * * * * * * * * * * * * * * * * * * * * * * * * * * * * * * * * * * * * //

dimensions      [0 1 0 0 0 0 0];

internalField   uniform (0 0 0);

boundaryField
{
    "(inlet|right)"
    {
        type            calculated;
        value           uniform (0 0 0);
    }

    "(left|wallSop|slipWall|hWall)"
    {
        type            calculated;
        value           uniform (0 0 0);
    }
    
    top
    {
        type            calculated;
        value           uniform (0 0 0);
    }
    
    "(side1|side2)"
    {
        type            empty;
    }
    
    down
    {
        type            calculated;
        value           uniform (0 0 0);
    }
}

// ************************************************************************* //
