/*--------------------------------*- C++ -*----------------------------------*\
| =========                 |                                                 |
| \\      /  F ield         | OpenFOAM: The Open Source CFD Toolbox           |
|  \\    /   O peration     | Version:  v1912                                 |
|   \\  /    A nd           | Website:  www.openfoam.com                      |
|    \\/     M anipulation  |                                                 |
\*---------------------------------------------------------------------------*/
FoamFile
{
    version     2.0;
    format      ascii;
    class       volScalarField;
    location    "0";
    object      epsilon;
}
// * * * * * * * * * * * * * * * * * * * * * * * * * * * * * * * * * * * * * //

dimensions      [0 2 -3 0 0 0 0];

internalField   uniform 0.00005;

boundaryField
{
    inlet
    {
       type             fixedValue;
       value            uniform 0.0000000535;
    }
    
    "(top|right)"
    {
       type             zeroGradient;
    }
    
    "(side1|side2)"
    {
        type            empty;
    }
    
    "(down|left)"
    {
        type            epsilonWallFunction;
        value           $internalField;
    }

}


// ************************************************************************* //
